<?xml version="1.0" encoding="UTF-8"?>
<routes xmlns:xsi="http://www.w3.org/2001/XMLSchema-instance" xsi:noNamespaceSchemaLocation="http://sumo.dlr.de/xsd/routes_file.xsd">
<!--     <vType id="car" accel="1.0" decel="5.0" sigma="1.0" length="5.0"  maxSpeed="40.0" minGap="2.0" guiShape="passenger"/> -->
    <vType id="car" accel="1.0" decel="5.0" sigma="1.0" length="5.0"  maxSpeed="60.0" minGap="2.0" guiShape="passenger"/>

<!--     <vType id="person" accel="1.5" decel="2.0" length="0.3"  maxSpeed="5.4" minGap="0.25" vClass="pedestrian" guiShape="pedestrian"/> -->
<!--     <vType id="person" accel="0.5" decel="2.0" length="0.3" maxSpeed="10.0" minGap="0.00005" vClass="pedestrian" guiShape="pedestrian"/> -->
<!--     <vType id="person" accel="0" decel="0" length="0.3" maxSpeed="15.0" minGap="0.00005" vClass="pedestrian" guiShape="pedestrian"/> -->
    <vType id="person" length="0.3" maxSpeed="10.0" minGap="0.00005" vClass="pedestrian" guiShape="pedestrian"/>
    
    <route id="0" edges="LC CR"/>
    <route id="1" edges="RC CL"/>
   
    <vehicle id="0" type="car" route="0" depart="0" departSpeed="60.0"/>
    <!--<vehicle id="1" type="car" route="1" depart="0"/>-->
	
    <person id="2" type="person" depart="0">
        <walk from="DC" to="CU" departPos="0" arrivalPos="0"/>
    </person>    
    
    <!--<person id="3" type="person" depart="0">
        <walk from="CU" to="DC" departPos="5" arrivalPos="0"/>
    </person>-->
        
</routes>
